!!>>>>>>>>>>>>>>>>>>>>>>>>>>>>>>>>>>>>>>>>>>>>>>>>>>>>>>>>>>>>>>>>>>>>>>
!! NEMO/OPA  Configuration namelist : used to overwrite defaults values defined in SHARED/namelist_ref
!!>>>>>>>>>>>>>>>>>>>>>>>>>>>>>>>>>>>>>>>>>>>>>>>>>>>>>>>>>>>>>>>>>>>>>>
!-----------------------------------------------------------------------
&namusr_def    !   SAS_BIPER user defined namelist
!-----------------------------------------------------------------------
   rn_dx       =    1000.   ! horizontal resolution in meters
   rn_dy       =    1000.   ! horizontal resolution in meters
/
!-----------------------------------------------------------------------
&namrun        !   parameters of the run
!-----------------------------------------------------------------------
   nn_no       =       0      !  job number (no more used...)
   cn_exp      =  "SASBIPER"  !  experience name
   nn_it000    =       1      !  first time step
   nn_itend    =    30300     !  last  time step (std 5475)
/
!-----------------------------------------------------------------------
&namcfg     !   parameters of the configuration
!-----------------------------------------------------------------------
   ln_read_cfg = .false.    !  (=T) read the domain configuration file
      !                     !  (=F) user defined configuration  ==>>>  see usrdef(_...) modules
      cn_domcfg = "SASBIPER_domcfg"    ! domain configuration filename
/
!-----------------------------------------------------------------------
&namdom        !   space and time domain (bathymetry, mesh, timestep)
!-----------------------------------------------------------------------
   ln_linssh   = .false.   !  =T  linear free surface  ==>>  model level are fixed in time
   !
   nn_msh      =    1      !  create (>0) a mesh file or not (=0)
   !
   rn_rdt      = 400.     !  time step for the dynamics (and tracer if nn_acc=0)
/
!-----------------------------------------------------------------------
&namcrs        !   Grid coarsening for dynamics output and/or
               !   passive tracer coarsened online simulations
!-----------------------------------------------------------------------
/
!-----------------------------------------------------------------------
&namtsd    !   data : Temperature  & Salinity
!-----------------------------------------------------------------------
/
!-----------------------------------------------------------------------
&namsbc        !   Surface Boundary Condition (surface module)
!-----------------------------------------------------------------------
   ln_usr      = .true.   !  user defined formulation                  (T => check usrdef_sbc)
   nn_fsbc     =  1       !  frequency of surface boundary condition computation
/
!-----------------------------------------------------------------------
&namsbc_blk   !   namsbc_blk  generic Bulk formula                      (ln_blk = T)
!-----------------------------------------------------------------------
/
!-----------------------------------------------------------------------
&namtra_qsr    !   penetrative solar radiation
!-----------------------------------------------------------------------
/
!-----------------------------------------------------------------------
&namsbc_rnf    !   runoffs namelist surface boundary condition
!-----------------------------------------------------------------------
/
!-----------------------------------------------------------------------
&namsbc_ssr    !   surface boundary condition : sea surface restoring
!-----------------------------------------------------------------------
/
!-----------------------------------------------------------------------
&namsbc_alb    !   albedo parameters
!-----------------------------------------------------------------------
/
!-----------------------------------------------------------------------
&namberg       !   iceberg parameters
!-----------------------------------------------------------------------
/
!-----------------------------------------------------------------------
&namlbc        !   lateral momentum boundary condition
!-----------------------------------------------------------------------
   rn_shlat    =    0.     !  shlat = 0  !  0 < shlat < 2  !  shlat = 2  !  2 < shlat
                           !  free slip  !   partial slip  !   no slip   ! strong slip
/
!-----------------------------------------------------------------------
&nambfr        !   bottom friction
!-----------------------------------------------------------------------
/
!-----------------------------------------------------------------------
&nambbc        !   bottom temperature boundary condition                (default: NO)
!-----------------------------------------------------------------------
/
!-----------------------------------------------------------------------
&nambbl        !   bottom boundary layer scheme
!-----------------------------------------------------------------------
/
!-----------------------------------------------------------------------
&nameos        !   ocean physical parameters
!-----------------------------------------------------------------------
   ln_teos10    = .true.         !  = Use TEOS-10 equation of state
/
!-----------------------------------------------------------------------
&namtra_adv    !   advection scheme for tracer
!-----------------------------------------------------------------------
   ln_traadv_fct =  .true.    !  FCT scheme
      nn_fct_h   =  4               !  =2/4, horizontal 2nd / 4th order 
      nn_fct_v   =  2               !  =2/4, vertical   2nd / COMPACT 4th order 
      nn_fct_zts =  0               !  > 1 , 2nd order FCT scheme with vertical sub-timestepping
      !                             !        (number of sub-timestep = nn_fct_zts)
/
!-----------------------------------------------------------------------
&namtra_adv_mle !  mixed layer eddy parametrisation (Fox-Kemper param)
!-----------------------------------------------------------------------
/
!----------------------------------------------------------------------------------
&namtra_ldf    !   lateral diffusion scheme for tracers
!----------------------------------------------------------------------------------
   !                       !  Operator type:
   ln_traldf_lap   =  .true.   !    laplacian operator
   ln_traldf_blp   =  .false.  !  bilaplacian operator
   !                       !  Direction of action:
   ln_traldf_lev   =  .false.  !  iso-level
   ln_traldf_hor   =  .false.  !  horizontal (geopotential)
   ln_traldf_iso   =  .true.   !  iso-neutral (Standard operator)
   ln_traldf_triad =  .false.  !  iso-neutral (Triads   operator)
   !
   !		       	         !  iso-neutral options:        
   ln_traldf_msc   =  .true.   !  Method of Stabilizing Correction (both operators)
   rn_slpmax       =   0.01    !  slope limit                      (both operators)
   ln_triad_iso    =  .false.  !  pure horizontal mixing in ML              (triad only)
   rn_sw_triad     =  1        !  =1 switching triad ; =0 all 4 triads used (triad only)
   ln_botmix_triad =  .false.  !  lateral mixing on bottom                  (triad only)
   !
   !                       !  Coefficients:
   nn_aht_ijk_t    = 20        !  space/time variation of eddy coef
   !                                !   =-20 (=-30)    read in eddy_diffusivity_2D.nc (..._3D.nc) file
   !                                !   =  0           constant 
   !                                !   = 10 F(k)      =ldf_c1d 
   !                                !   = 20 F(i,j)    =ldf_c2d 
   !                                !   = 21 F(i,j,t)  =Treguier et al. JPO 1997 formulation
   !                                !   = 30 F(i,j,k)  =ldf_c2d + ldf_c1d
   !                                !   = 31 F(i,j,k,t)=F(local velocity)
   rn_aht_0        = 2000.     !  lateral eddy diffusivity   (lap. operator) [m2/s]
   rn_bht_0        = 1.e+12    !  lateral eddy diffusivity (bilap. operator) [m4/s]
/
!----------------------------------------------------------------------------------
&namtra_ldfeiv !   eddy induced velocity param.
!----------------------------------------------------------------------------------
   ln_ldfeiv     =.true.   ! use eddy induced velocity parameterization
   ln_ldfeiv_dia =.true.   ! diagnose eiv stream function and velocities
   rn_aeiv_0     = 2000.   ! eddy induced velocity coefficient   [m2/s]
   nn_aei_ijk_t  = 21      ! space/time variation of the eiv coeficient
   !                                !   =-20 (=-30)    read in eddy_induced_velocity_2D.nc (..._3D.nc) file
   !                                !   =  0           constant 
   !                                !   = 10 F(k)      =ldf_c1d 
   !                                !   = 20 F(i,j)    =ldf_c2d 
   !                                !   = 21 F(i,j,t)  =Treguier et al. JPO 1997 formulation
   !                                !   = 30 F(i,j,k)  =ldf_c2d + ldf_c1d
/
!-----------------------------------------------------------------------
&namtra_dmp    !   tracer: T & S newtonian damping                      (default: NO)
!-----------------------------------------------------------------------
!-----------------------------------------------------------------------
&namdyn_adv    !   formulation of the momentum advection
!-----------------------------------------------------------------------
/
!-----------------------------------------------------------------------
&namdyn_vor    !   option of physics/algorithm (not control by CPP keys)
!-----------------------------------------------------------------------
   ln_dynvor_ene = .false. !  enstrophy conserving scheme
   ln_dynvor_ens = .false. !  energy conserving scheme
   ln_dynvor_mix = .false. !  mixed scheme
   ln_dynvor_een = .true.  !  energy & enstrophy scheme
      nn_een_e3f = 0             !  e3f = masked averaging of e3t divided by 4 (=0) or by the sum of mask (=1)
/
!-----------------------------------------------------------------------
&namdyn_hpg    !   Hydrostatic pressure gradient option
!-----------------------------------------------------------------------
   ln_hpg_zco  = .true.   !  z-coordinate - full steps
/
!-----------------------------------------------------------------------
&namdyn_spg    !   surface pressure gradient
!-----------------------------------------------------------------------
   ln_dynspg_ts  = .true.  !  split-explicit free surface
/
!-----------------------------------------------------------------------
&namdyn_ldf    !   lateral diffusion on momentum
!-----------------------------------------------------------------------
   !                       !  Type of the operator :
   !                           !  no diffusion: set ln_dynldf_lap=..._blp=F 
   ln_dynldf_lap =  .true.     !    laplacian operator
   ln_dynldf_blp =  .false.    !  bilaplacian operator
   !                       !  Direction of action  :
   ln_dynldf_lev =  .true.     !  iso-level
   ln_dynldf_hor =  .false.    !  horizontal (geopotential)
   ln_dynldf_iso =  .false.    !  iso-neutral
   !                       !  Coefficient
   nn_ahm_ijk_t  = -30         !  space/time variation of eddy coef
   !                                !  =-30  read in eddy_viscosity_3D.nc file
   !                                !  =-20  read in eddy_viscosity_2D.nc file
   !                                !  =  0  constant 
   !                                !  = 10  F(k)=c1d
   !                                !  = 20  F(i,j)=F(grid spacing)=c2d
   !                                !  = 30  F(i,j,k)=c2d*c1d
   !                                !  = 31  F(i,j,k)=F(grid spacing and local velocity)
   rn_ahm_0      =  40000.     !  horizontal laplacian eddy viscosity   [m2/s]
   rn_ahm_b      =      0.     !  background eddy viscosity for ldf_iso [m2/s]
   rn_bhm_0      = 1.e+12      !  horizontal bilaplacian eddy viscosity [m4/s]
   !
   ! Caution in 20 and 30 cases the coefficient have to be given for a 1 degree grid (~111km)
/
!-----------------------------------------------------------------------
&namzdf        !   vertical physics
!-----------------------------------------------------------------------
/
!-----------------------------------------------------------------------
&namzdf_tke    !   turbulent eddy kinetic dependent vertical diffusion  ("key_zdftke")
!-----------------------------------------------------------------------
/
!-----------------------------------------------------------------------
&namzdf_ddm    !   double diffusive mixing parameterization             ("key_zdfddm")
!-----------------------------------------------------------------------
/
!-----------------------------------------------------------------------
&namzdf_tmx    !   tidal mixing parameterization                        ("key_zdftmx")
!-----------------------------------------------------------------------
/
!-----------------------------------------------------------------------
&nammpp        !   Massively Parallel Processing                        ("key_mpp_mpi)
!-----------------------------------------------------------------------
/
!-----------------------------------------------------------------------
&namctl        !   Control prints & Benchmark
!-----------------------------------------------------------------------
/
!-----------------------------------------------------------------------
&namptr       !   Poleward Transport Diagnostic
!-----------------------------------------------------------------------
/
!-----------------------------------------------------------------------
&namhsb       !  Heat and salt budgets                                  (default F)
!-----------------------------------------------------------------------
/
!-----------------------------------------------------------------------
&namobs       !  observation usage                                      ('key_diaobs')
!-----------------------------------------------------------------------
/
!-----------------------------------------------------------------------
&nam_asminc   !   assimilation increments                               ('key_asminc')
!-----------------------------------------------------------------------
/
